<routes>
<vType id="typeCar" accel="0.8" decel="4.5" sigma="0.5" length="5" minGap="2.5" maxSpeed="25" guiShape="passenger"/>
<vType id="typeBus" accel="0.8" decel="4.5" sigma="0.5" length="17" minGap="3" maxSpeed="25" guiShape="bus"/>

<route id="eastSouth" edges="2:0 0:1 1:5 5:6" />
<route id="eastWest" edges="2:0 0:1 1:3 3:7" />
<route id="eastNorth" edges="2:0 0:1 1:8 8:9" />
<route id="westSouth" edges="7:3 3:1 1:5 5:6" />
<route id="westEast" edges="7:3 3:1 1:0 0:2" />
<route id="westNorth" edges="7:3 3:1 1:8 8:9" />
<route id="southEast" edges="6:5 5:1 1:0 0:2" />
<route id="southWest" edges="6:5 5:1 1:3 3:7" />
<route id="southNorth" edges="6:5 5:1 1:8 8:9" />
<route id="northEast" edges="9:8 8:1 1:0 0:2" />
<route id="northWest" edges="9:8 8:1 1:3 3:7" />
<route id="northSouth" edges="9:8 8:1 1:5 5:6" />

    <vehicle id="0" type="typeCar" route="southNorth" depart="1" />
    <vehicle id="1" type="typeCar" route="southWest" depart="3" />
    <vehicle id="2" type="typeCar" route="eastSouth" depart="16" />
    <vehicle id="3" type="typeCar" route="eastNorth" depart="16" />
    <vehicle id="4" type="typeCar" route="northWest" depart="29" />
    <vehicle id="5" type="typeCar" route="westEast" depart="30" />
    <vehicle id="6" type="typeCar" route="westSouth" depart="31" />
    <vehicle id="7" type="typeCar" route="westSouth" depart="42" />
    <vehicle id="8" type="typeCar" route="eastWest" depart="48" />
    <vehicle id="9" type="typeCar" route="westEast" depart="48" />
    <vehicle id="10" type="typeCar" route="westEast" depart="55" />
    <vehicle id="11" type="typeCar" route="southEast" depart="59" />
    <vehicle id="12" type="typeCar" route="westEast" depart="63" />
    <vehicle id="13" type="typeCar" route="northEast" depart="67" />
    <vehicle id="14" type="typeCar" route="westEast" depart="73" />
    <vehicle id="15" type="typeCar" route="eastSouth" depart="75" />
    <vehicle id="16" type="typeCar" route="southNorth" depart="91" />
    <vehicle id="17" type="typeCar" route="westSouth" depart="92" />
    <vehicle id="18" type="typeCar" route="southWest" depart="93" />
    <vehicle id="19" type="typeCar" route="westSouth" depart="95" />
    <vehicle id="20" type="typeCar" route="northSouth" depart="120" />
    <vehicle id="21" type="typeCar" route="northSouth" depart="127" />
    <vehicle id="22" type="typeCar" route="southWest" depart="132" />
    <vehicle id="23" type="typeCar" route="westEast" depart="145" />
    <vehicle id="24" type="typeCar" route="northEast" depart="150" />
    <vehicle id="25" type="typeCar" route="northSouth" depart="156" />
    <vehicle id="26" type="typeCar" route="eastWest" depart="165" />
    <vehicle id="27" type="typeCar" route="northEast" depart="171" />
    <vehicle id="28" type="typeCar" route="westNorth" depart="176" />
    <vehicle id="29" type="typeCar" route="northSouth" depart="177" />
    <vehicle id="30" type="typeCar" route="westSouth" depart="185" />
    <vehicle id="31" type="typeCar" route="eastNorth" depart="193" />
    <vehicle id="32" type="typeCar" route="northSouth" depart="197" />
    <vehicle id="33" type="typeCar" route="westEast" depart="201" />
    <vehicle id="34" type="typeCar" route="westNorth" depart="220" />
    <vehicle id="35" type="typeCar" route="eastNorth" depart="228" />
    <vehicle id="36" type="typeCar" route="northSouth" depart="242" />
    <vehicle id="37" type="typeCar" route="westNorth" depart="246" />
    <vehicle id="38" type="typeCar" route="northSouth" depart="250" />
    <vehicle id="39" type="typeCar" route="westEast" depart="254" />
    <vehicle id="40" type="typeCar" route="southEast" depart="264" />
    <vehicle id="41" type="typeCar" route="eastWest" depart="267" />
    <vehicle id="42" type="typeCar" route="westSouth" depart="288" />
    <vehicle id="43" type="typeCar" route="southNorth" depart="298" />
    <vehicle id="44" type="typeCar" route="northSouth" depart="301" />
    <vehicle id="45" type="typeCar" route="northSouth" depart="302" />
    <vehicle id="46" type="typeCar" route="westEast" depart="307" />
    <vehicle id="47" type="typeCar" route="eastWest" depart="325" />
    <vehicle id="48" type="typeCar" route="southNorth" depart="331" />
    <vehicle id="49" type="typeCar" route="northWest" depart="332" />
    <vehicle id="50" type="typeCar" route="eastNorth" depart="342" />
    <vehicle id="51" type="typeCar" route="westEast" depart="343" />
    <vehicle id="52" type="typeCar" route="northSouth" depart="346" />
    <vehicle id="53" type="typeCar" route="northEast" depart="348" />
    <vehicle id="54" type="typeCar" route="southWest" depart="351" />
    <vehicle id="55" type="typeCar" route="westNorth" depart="354" />
    <vehicle id="56" type="typeCar" route="southNorth" depart="358" />
    <vehicle id="57" type="typeCar" route="northSouth" depart="368" />
    <vehicle id="58" type="typeCar" route="northSouth" depart="383" />
    <vehicle id="59" type="typeCar" route="westEast" depart="384" />
    <vehicle id="60" type="typeCar" route="eastWest" depart="392" />
    <vehicle id="61" type="typeCar" route="eastWest" depart="398" />
    <vehicle id="62" type="typeCar" route="eastSouth" depart="403" />
    <vehicle id="63" type="typeCar" route="westSouth" depart="404" />
    <vehicle id="64" type="typeCar" route="northSouth" depart="408" />
    <vehicle id="65" type="typeCar" route="northSouth" depart="409" />
    <vehicle id="66" type="typeCar" route="northSouth" depart="413" />
    <vehicle id="67" type="typeCar" route="westSouth" depart="414" />
    <vehicle id="68" type="typeCar" route="southEast" depart="419" />
    <vehicle id="69" type="typeCar" route="westEast" depart="420" />
    <vehicle id="70" type="typeCar" route="southNorth" depart="429" />
    <vehicle id="71" type="typeCar" route="southNorth" depart="431" />
    <vehicle id="72" type="typeCar" route="westNorth" depart="433" />
    <vehicle id="73" type="typeCar" route="westNorth" depart="456" />
    <vehicle id="74" type="typeCar" route="westEast" depart="464" />
    <vehicle id="75" type="typeCar" route="southEast" depart="478" />
    <vehicle id="76" type="typeCar" route="southNorth" depart="483" />
    <vehicle id="77" type="typeCar" route="eastWest" depart="484" />
    <vehicle id="78" type="typeCar" route="northSouth" depart="503" />
    <vehicle id="79" type="typeCar" route="northSouth" depart="504" />
    <vehicle id="80" type="typeCar" route="westSouth" depart="506" />
    <vehicle id="81" type="typeCar" route="southWest" depart="511" />
    <vehicle id="82" type="typeCar" route="eastWest" depart="522" />
    <vehicle id="83" type="typeCar" route="eastWest" depart="543" />
    <vehicle id="84" type="typeCar" route="eastWest" depart="551" />
    <vehicle id="85" type="typeCar" route="eastWest" depart="552" />
    <vehicle id="86" type="typeCar" route="southNorth" depart="552" />
    <vehicle id="87" type="typeCar" route="northSouth" depart="552" />
    <vehicle id="88" type="typeCar" route="eastSouth" depart="556" />
    <vehicle id="89" type="typeCar" route="northSouth" depart="564" />
    <vehicle id="90" type="typeCar" route="northSouth" depart="578" />
    <vehicle id="91" type="typeCar" route="eastWest" depart="581" />
    <vehicle id="92" type="typeCar" route="northEast" depart="596" />
    <vehicle id="93" type="typeCar" route="eastWest" depart="597" />
    <vehicle id="94" type="typeCar" route="westEast" depart="617" />
    <vehicle id="95" type="typeCar" route="eastSouth" depart="637" />
    <vehicle id="96" type="typeCar" route="westEast" depart="637" />
    <vehicle id="97" type="typeCar" route="southNorth" depart="642" />
    <vehicle id="98" type="typeCar" route="westEast" depart="645" />
    <vehicle id="99" type="typeCar" route="northSouth" depart="646" />
    <vehicle id="100" type="typeCar" route="southNorth" depart="647" />
    <vehicle id="101" type="typeCar" route="westEast" depart="650" />
    <vehicle id="102" type="typeCar" route="eastWest" depart="668" />
    <vehicle id="103" type="typeCar" route="westNorth" depart="695" />
    <vehicle id="104" type="typeCar" route="westEast" depart="707" />
    <vehicle id="105" type="typeCar" route="northEast" depart="724" />
    <vehicle id="106" type="typeCar" route="westSouth" depart="729" />
    <vehicle id="107" type="typeCar" route="eastSouth" depart="735" />
    <vehicle id="108" type="typeCar" route="southEast" depart="738" />
    <vehicle id="109" type="typeCar" route="southNorth" depart="747" />
    <vehicle id="110" type="typeCar" route="northSouth" depart="760" />
    <vehicle id="111" type="typeCar" route="westEast" depart="769" />
    <vehicle id="112" type="typeCar" route="eastWest" depart="774" />
    <vehicle id="113" type="typeCar" route="westNorth" depart="805" />
    <vehicle id="114" type="typeCar" route="southNorth" depart="816" />
    <vehicle id="115" type="typeCar" route="northSouth" depart="818" />
    <vehicle id="116" type="typeCar" route="northSouth" depart="822" />
    <vehicle id="117" type="typeCar" route="southWest" depart="824" />
    <vehicle id="118" type="typeCar" route="eastWest" depart="833" />
    <vehicle id="119" type="typeCar" route="eastWest" depart="838" />
    <vehicle id="120" type="typeCar" route="southNorth" depart="852" />
    <vehicle id="121" type="typeCar" route="westEast" depart="869" />
    <vehicle id="122" type="typeCar" route="eastWest" depart="890" />
    <vehicle id="123" type="typeCar" route="southNorth" depart="894" />
    <vehicle id="124" type="typeCar" route="eastWest" depart="908" />
    <vehicle id="125" type="typeCar" route="southWest" depart="908" />
    <vehicle id="126" type="typeCar" route="westNorth" depart="924" />
    <vehicle id="127" type="typeCar" route="northSouth" depart="930" />
    <vehicle id="128" type="typeCar" route="eastNorth" depart="936" />
    <vehicle id="129" type="typeCar" route="southNorth" depart="941" />
    <vehicle id="130" type="typeCar" route="westNorth" depart="971" />
    <vehicle id="131" type="typeCar" route="southNorth" depart="971" />
    <vehicle id="132" type="typeCar" route="southNorth" depart="984" />
    <vehicle id="133" type="typeCar" route="northSouth" depart="989" />
    <vehicle id="134" type="typeCar" route="southNorth" depart="991" />
    <vehicle id="135" type="typeCar" route="southNorth" depart="1002" />
    <vehicle id="136" type="typeCar" route="eastNorth" depart="1007" />
    <vehicle id="137" type="typeCar" route="northSouth" depart="1008" />
    <vehicle id="138" type="typeCar" route="northSouth" depart="1009" />
    <vehicle id="139" type="typeCar" route="westEast" depart="1011" />
    <vehicle id="140" type="typeCar" route="northSouth" depart="1017" />
    <vehicle id="141" type="typeCar" route="eastWest" depart="1021" />
    <vehicle id="142" type="typeCar" route="westEast" depart="1027" />
    <vehicle id="143" type="typeCar" route="northSouth" depart="1029" />
    <vehicle id="144" type="typeCar" route="northEast" depart="1031" />
    <vehicle id="145" type="typeCar" route="westEast" depart="1038" />
    <vehicle id="146" type="typeCar" route="westEast" depart="1054" />
    <vehicle id="147" type="typeCar" route="westEast" depart="1065" />
    <vehicle id="148" type="typeCar" route="northSouth" depart="1065" />
    <vehicle id="149" type="typeCar" route="westEast" depart="1066" />
    <vehicle id="150" type="typeCar" route="northSouth" depart="1073" />
    <vehicle id="151" type="typeCar" route="westEast" depart="1074" />
    <vehicle id="152" type="typeCar" route="westNorth" depart="1079" />
    <vehicle id="153" type="typeCar" route="southNorth" depart="1079" />
    <vehicle id="154" type="typeCar" route="southEast" depart="1093" />
    <vehicle id="155" type="typeCar" route="northWest" depart="1098" />
    <vehicle id="156" type="typeCar" route="northSouth" depart="1106" />
    <vehicle id="157" type="typeCar" route="westNorth" depart="1107" />
    <vehicle id="158" type="typeCar" route="northEast" depart="1117" />
    <vehicle id="159" type="typeCar" route="southWest" depart="1129" />
    <vehicle id="160" type="typeCar" route="eastWest" depart="1135" />
    <vehicle id="161" type="typeCar" route="northEast" depart="1138" />
    <vehicle id="162" type="typeCar" route="westEast" depart="1139" />
    <vehicle id="163" type="typeCar" route="northWest" depart="1140" />
    <vehicle id="164" type="typeCar" route="eastNorth" depart="1155" />
    <vehicle id="165" type="typeCar" route="northEast" depart="1157" />
    <vehicle id="166" type="typeCar" route="eastWest" depart="1168" />
    <vehicle id="167" type="typeCar" route="eastNorth" depart="1181" />
    <vehicle id="168" type="typeCar" route="southWest" depart="1182" />
    <vehicle id="169" type="typeCar" route="southNorth" depart="1184" />
    <vehicle id="170" type="typeCar" route="southNorth" depart="1186" />
    <vehicle id="171" type="typeCar" route="westNorth" depart="1191" />
    <vehicle id="172" type="typeCar" route="eastWest" depart="1204" />
    <vehicle id="173" type="typeCar" route="northEast" depart="1204" />
    <vehicle id="174" type="typeCar" route="northSouth" depart="1205" />
    <vehicle id="175" type="typeCar" route="westEast" depart="1207" />
    <vehicle id="176" type="typeCar" route="westNorth" depart="1222" />
    <vehicle id="177" type="typeCar" route="eastWest" depart="1226" />
    <vehicle id="178" type="typeCar" route="southEast" depart="1232" />
    <vehicle id="179" type="typeCar" route="northSouth" depart="1237" />
    <vehicle id="180" type="typeCar" route="westEast" depart="1239" />
    <vehicle id="181" type="typeCar" route="southEast" depart="1243" />
    <vehicle id="182" type="typeCar" route="westEast" depart="1250" />
    <vehicle id="183" type="typeCar" route="eastWest" depart="1252" />
    <vehicle id="184" type="typeCar" route="northEast" depart="1252" />
    <vehicle id="185" type="typeCar" route="northSouth" depart="1255" />
    <vehicle id="186" type="typeCar" route="westEast" depart="1256" />
    <vehicle id="187" type="typeCar" route="westNorth" depart="1257" />
    <vehicle id="188" type="typeCar" route="southEast" depart="1264" />
    <vehicle id="189" type="typeCar" route="westEast" depart="1276" />
    <vehicle id="190" type="typeCar" route="eastSouth" depart="1281" />
    <vehicle id="191" type="typeCar" route="southNorth" depart="1287" />
    <vehicle id="192" type="typeCar" route="eastWest" depart="1289" />
    <vehicle id="193" type="typeCar" route="northEast" depart="1294" />
    <vehicle id="194" type="typeCar" route="northSouth" depart="1296" />
    <vehicle id="195" type="typeCar" route="eastSouth" depart="1309" />
    <vehicle id="196" type="typeCar" route="westEast" depart="1313" />
    <vehicle id="197" type="typeCar" route="southEast" depart="1327" />
    <vehicle id="198" type="typeCar" route="westEast" depart="1332" />
    <vehicle id="199" type="typeCar" route="southEast" depart="1354" />
    <vehicle id="200" type="typeCar" route="eastNorth" depart="1357" />
    <vehicle id="201" type="typeCar" route="westEast" depart="1358" />
    <vehicle id="202" type="typeCar" route="westNorth" depart="1363" />
    <vehicle id="203" type="typeCar" route="northWest" depart="1368" />
    <vehicle id="204" type="typeCar" route="eastSouth" depart="1376" />
    <vehicle id="205" type="typeCar" route="northSouth" depart="1376" />
    <vehicle id="206" type="typeCar" route="eastSouth" depart="1383" />
    <vehicle id="207" type="typeCar" route="westEast" depart="1384" />
    <vehicle id="208" type="typeCar" route="westEast" depart="1385" />
    <vehicle id="209" type="typeCar" route="northSouth" depart="1394" />
    <vehicle id="210" type="typeCar" route="westSouth" depart="1396" />
    <vehicle id="211" type="typeCar" route="eastSouth" depart="1401" />
    <vehicle id="212" type="typeCar" route="northWest" depart="1402" />
    <vehicle id="213" type="typeCar" route="eastSouth" depart="1408" />
    <vehicle id="214" type="typeCar" route="eastWest" depart="1426" />
    <vehicle id="215" type="typeCar" route="southNorth" depart="1429" />
    <vehicle id="216" type="typeCar" route="eastWest" depart="1430" />
    <vehicle id="217" type="typeCar" route="westEast" depart="1438" />
    <vehicle id="218" type="typeCar" route="southNorth" depart="1466" />
    <vehicle id="219" type="typeCar" route="eastWest" depart="1467" />
    <vehicle id="220" type="typeCar" route="northSouth" depart="1468" />
    <vehicle id="221" type="typeCar" route="westEast" depart="1470" />
    <vehicle id="222" type="typeCar" route="westEast" depart="1472" />
    <vehicle id="223" type="typeCar" route="southNorth" depart="1496" />
    <vehicle id="224" type="typeCar" route="southNorth" depart="1501" />
    <vehicle id="225" type="typeCar" route="eastWest" depart="1513" />
    <vehicle id="226" type="typeCar" route="southNorth" depart="1523" />
    <vehicle id="227" type="typeCar" route="northSouth" depart="1535" />
    <vehicle id="228" type="typeCar" route="westSouth" depart="1540" />
    <vehicle id="229" type="typeCar" route="northWest" depart="1540" />
    <vehicle id="230" type="typeCar" route="eastWest" depart="1542" />
    <vehicle id="231" type="typeCar" route="northSouth" depart="1543" />
    <vehicle id="232" type="typeCar" route="eastWest" depart="1551" />
    <vehicle id="233" type="typeCar" route="eastNorth" depart="1559" />
    <vehicle id="234" type="typeCar" route="northSouth" depart="1566" />
    <vehicle id="235" type="typeCar" route="eastSouth" depart="1571" />
    <vehicle id="236" type="typeCar" route="eastWest" depart="1576" />
    <vehicle id="237" type="typeCar" route="westEast" depart="1577" />
    <vehicle id="238" type="typeCar" route="northEast" depart="1578" />
    <vehicle id="239" type="typeCar" route="eastSouth" depart="1581" />
    <vehicle id="240" type="typeCar" route="westEast" depart="1583" />
    <vehicle id="241" type="typeCar" route="southNorth" depart="1588" />
    <vehicle id="242" type="typeCar" route="westSouth" depart="1601" />
    <vehicle id="243" type="typeCar" route="southWest" depart="1619" />
    <vehicle id="244" type="typeCar" route="southNorth" depart="1623" />
    <vehicle id="245" type="typeCar" route="southNorth" depart="1625" />
    <vehicle id="246" type="typeCar" route="eastSouth" depart="1628" />
    <vehicle id="247" type="typeCar" route="eastNorth" depart="1633" />
    <vehicle id="248" type="typeCar" route="northSouth" depart="1634" />
    <vehicle id="249" type="typeCar" route="westSouth" depart="1648" />
    <vehicle id="250" type="typeCar" route="southNorth" depart="1651" />
    <vehicle id="251" type="typeCar" route="northEast" depart="1651" />
    <vehicle id="252" type="typeCar" route="northSouth" depart="1652" />
    <vehicle id="253" type="typeCar" route="eastWest" depart="1654" />
    <vehicle id="254" type="typeCar" route="southNorth" depart="1658" />
    <vehicle id="255" type="typeCar" route="southNorth" depart="1659" />
    <vehicle id="256" type="typeCar" route="northSouth" depart="1660" />
    <vehicle id="257" type="typeCar" route="southWest" depart="1661" />
    <vehicle id="258" type="typeCar" route="southEast" depart="1664" />
    <vehicle id="259" type="typeCar" route="westEast" depart="1667" />
    <vehicle id="260" type="typeCar" route="northSouth" depart="1672" />
    <vehicle id="261" type="typeCar" route="southNorth" depart="1679" />
    <vehicle id="262" type="typeCar" route="eastWest" depart="1687" />
    <vehicle id="263" type="typeCar" route="southNorth" depart="1689" />
    <vehicle id="264" type="typeCar" route="eastNorth" depart="1694" />
    <vehicle id="265" type="typeCar" route="northSouth" depart="1698" />
    <vehicle id="266" type="typeCar" route="southEast" depart="1710" />
    <vehicle id="267" type="typeCar" route="southEast" depart="1713" />
    <vehicle id="268" type="typeCar" route="northEast" depart="1719" />
    <vehicle id="269" type="typeCar" route="northSouth" depart="1720" />
    <vehicle id="270" type="typeCar" route="eastSouth" depart="1721" />
    <vehicle id="271" type="typeCar" route="northSouth" depart="1722" />
    <vehicle id="272" type="typeCar" route="westEast" depart="1729" />
    <vehicle id="273" type="typeCar" route="westSouth" depart="1761" />
    <vehicle id="274" type="typeCar" route="eastWest" depart="1767" />
    <vehicle id="275" type="typeCar" route="eastWest" depart="1779" />
    <vehicle id="276" type="typeCar" route="northSouth" depart="1781" />
    <vehicle id="277" type="typeCar" route="westEast" depart="1785" />
    <vehicle id="278" type="typeCar" route="eastSouth" depart="1795" />
    <vehicle id="279" type="typeCar" route="northWest" depart="1816" />
    <vehicle id="280" type="typeCar" route="southWest" depart="1831" />
    <vehicle id="281" type="typeCar" route="southNorth" depart="1835" />
    <vehicle id="282" type="typeCar" route="eastSouth" depart="1836" />
    <vehicle id="283" type="typeCar" route="southNorth" depart="1842" />
    <vehicle id="284" type="typeCar" route="northSouth" depart="1851" />
    <vehicle id="285" type="typeCar" route="westEast" depart="1860" />
    <vehicle id="286" type="typeCar" route="northSouth" depart="1861" />
    <vehicle id="287" type="typeCar" route="eastWest" depart="1866" />
    <vehicle id="288" type="typeCar" route="westEast" depart="1878" />
    <vehicle id="289" type="typeCar" route="northSouth" depart="1882" />
    <vehicle id="290" type="typeCar" route="southNorth" depart="1898" />
    <vehicle id="291" type="typeCar" route="westSouth" depart="1908" />
    <vehicle id="292" type="typeCar" route="westEast" depart="1922" />
    <vehicle id="293" type="typeCar" route="southNorth" depart="1922" />
    <vehicle id="294" type="typeCar" route="eastNorth" depart="1923" />
    <vehicle id="295" type="typeCar" route="westEast" depart="1924" />
    <vehicle id="296" type="typeCar" route="southEast" depart="1931" />
    <vehicle id="297" type="typeCar" route="northSouth" depart="1932" />
    <vehicle id="298" type="typeCar" route="southNorth" depart="1933" />
    <vehicle id="299" type="typeCar" route="westNorth" depart="1937" />
    <vehicle id="300" type="typeCar" route="northEast" depart="1940" />
    <vehicle id="301" type="typeCar" route="northEast" depart="1944" />
    <vehicle id="302" type="typeCar" route="southEast" depart="1952" />
    <vehicle id="303" type="typeCar" route="southNorth" depart="1961" />
    <vehicle id="304" type="typeCar" route="northSouth" depart="1966" />
    <vehicle id="305" type="typeCar" route="southWest" depart="1970" />
    <vehicle id="306" type="typeCar" route="westEast" depart="1972" />
    <vehicle id="307" type="typeCar" route="eastWest" depart="1978" />
    <vehicle id="308" type="typeCar" route="eastWest" depart="1980" />
    <vehicle id="309" type="typeCar" route="southNorth" depart="1984" />
    <vehicle id="310" type="typeCar" route="southNorth" depart="2000" />
    <vehicle id="311" type="typeCar" route="northSouth" depart="2000" />
    <vehicle id="312" type="typeCar" route="westEast" depart="2005" />
    <vehicle id="313" type="typeCar" route="southWest" depart="2006" />
    <vehicle id="314" type="typeCar" route="southNorth" depart="2007" />
    <vehicle id="315" type="typeCar" route="westEast" depart="2008" />
    <vehicle id="316" type="typeCar" route="westSouth" depart="2012" />
    <vehicle id="317" type="typeCar" route="westEast" depart="2021" />
    <vehicle id="318" type="typeCar" route="northSouth" depart="2035" />
    <vehicle id="319" type="typeCar" route="northSouth" depart="2040" />
    <vehicle id="320" type="typeCar" route="westEast" depart="2045" />
    <vehicle id="321" type="typeCar" route="eastSouth" depart="2051" />
    <vehicle id="322" type="typeCar" route="northWest" depart="2055" />
    <vehicle id="323" type="typeCar" route="westEast" depart="2058" />
    <vehicle id="324" type="typeCar" route="northWest" depart="2059" />
    <vehicle id="325" type="typeCar" route="westNorth" depart="2061" />
    <vehicle id="326" type="typeCar" route="southWest" depart="2061" />
    <vehicle id="327" type="typeCar" route="eastNorth" depart="2066" />
    <vehicle id="328" type="typeCar" route="northEast" depart="2072" />
    <vehicle id="329" type="typeCar" route="southEast" depart="2076" />
    <vehicle id="330" type="typeCar" route="northEast" depart="2076" />
    <vehicle id="331" type="typeCar" route="southEast" depart="2078" />
    <vehicle id="332" type="typeCar" route="eastWest" depart="2086" />
    <vehicle id="333" type="typeCar" route="westEast" depart="2088" />
    <vehicle id="334" type="typeCar" route="eastSouth" depart="2091" />
    <vehicle id="335" type="typeCar" route="northWest" depart="2094" />
    <vehicle id="336" type="typeCar" route="northWest" depart="2095" />
    <vehicle id="337" type="typeCar" route="westEast" depart="2103" />
    <vehicle id="338" type="typeCar" route="southEast" depart="2103" />
    <vehicle id="339" type="typeCar" route="southWest" depart="2128" />
    <vehicle id="340" type="typeCar" route="westNorth" depart="2135" />
    <vehicle id="341" type="typeCar" route="westEast" depart="2156" />
    <vehicle id="342" type="typeCar" route="westEast" depart="2157" />
    <vehicle id="343" type="typeCar" route="northEast" depart="2169" />
    <vehicle id="344" type="typeCar" route="eastSouth" depart="2179" />
    <vehicle id="345" type="typeCar" route="northWest" depart="2180" />
    <vehicle id="346" type="typeCar" route="eastWest" depart="2183" />
    <vehicle id="347" type="typeCar" route="northSouth" depart="2187" />
    <vehicle id="348" type="typeCar" route="westEast" depart="2189" />
    <vehicle id="349" type="typeCar" route="westEast" depart="2193" />
    <vehicle id="350" type="typeCar" route="northSouth" depart="2193" />
    <vehicle id="351" type="typeCar" route="northWest" depart="2195" />
    <vehicle id="352" type="typeCar" route="southEast" depart="2197" />
    <vehicle id="353" type="typeCar" route="westEast" depart="2201" />
    <vehicle id="354" type="typeCar" route="eastWest" depart="2202" />
    <vehicle id="355" type="typeCar" route="northSouth" depart="2218" />
    <vehicle id="356" type="typeCar" route="westEast" depart="2231" />
    <vehicle id="357" type="typeCar" route="southNorth" depart="2233" />
    <vehicle id="358" type="typeCar" route="westEast" depart="2236" />
    <vehicle id="359" type="typeCar" route="southEast" depart="2237" />
    <vehicle id="360" type="typeCar" route="northSouth" depart="2238" />
    <vehicle id="361" type="typeCar" route="eastWest" depart="2240" />
    <vehicle id="362" type="typeCar" route="northEast" depart="2242" />
    <vehicle id="363" type="typeCar" route="northSouth" depart="2242" />
    <vehicle id="364" type="typeCar" route="westEast" depart="2244" />
    <vehicle id="365" type="typeCar" route="southEast" depart="2245" />
    <vehicle id="366" type="typeCar" route="northWest" depart="2257" />
    <vehicle id="367" type="typeCar" route="southEast" depart="2269" />
    <vehicle id="368" type="typeCar" route="southNorth" depart="2273" />
    <vehicle id="369" type="typeCar" route="northEast" depart="2275" />
    <vehicle id="370" type="typeCar" route="westSouth" depart="2279" />
    <vehicle id="371" type="typeCar" route="northSouth" depart="2285" />
    <vehicle id="372" type="typeCar" route="westEast" depart="2294" />
    <vehicle id="373" type="typeCar" route="eastNorth" depart="2307" />
    <vehicle id="374" type="typeCar" route="westEast" depart="2317" />
    <vehicle id="375" type="typeCar" route="southEast" depart="2318" />
    <vehicle id="376" type="typeCar" route="southNorth" depart="2326" />
    <vehicle id="377" type="typeCar" route="southEast" depart="2341" />
    <vehicle id="378" type="typeCar" route="southNorth" depart="2349" />
    <vehicle id="379" type="typeCar" route="westEast" depart="2358" />
    <vehicle id="380" type="typeCar" route="westNorth" depart="2360" />
    <vehicle id="381" type="typeCar" route="southEast" depart="2361" />
    <vehicle id="382" type="typeCar" route="westSouth" depart="2370" />
    <vehicle id="383" type="typeCar" route="westEast" depart="2376" />
    <vehicle id="384" type="typeCar" route="eastWest" depart="2387" />
    <vehicle id="385" type="typeCar" route="southWest" depart="2387" />
    <vehicle id="386" type="typeCar" route="westEast" depart="2393" />
    <vehicle id="387" type="typeCar" route="westEast" depart="2402" />
    <vehicle id="388" type="typeCar" route="northSouth" depart="2403" />
    <vehicle id="389" type="typeCar" route="eastWest" depart="2426" />
    <vehicle id="390" type="typeCar" route="eastSouth" depart="2431" />
    <vehicle id="391" type="typeCar" route="southNorth" depart="2435" />
    <vehicle id="392" type="typeCar" route="eastWest" depart="2440" />
    <vehicle id="393" type="typeCar" route="northEast" depart="2443" />
    <vehicle id="394" type="typeCar" route="southNorth" depart="2451" />
    <vehicle id="395" type="typeCar" route="southNorth" depart="2452" />
    <vehicle id="396" type="typeCar" route="southEast" depart="2454" />
    <vehicle id="397" type="typeCar" route="southNorth" depart="2454" />
    <vehicle id="398" type="typeCar" route="eastWest" depart="2464" />
    <vehicle id="399" type="typeCar" route="northEast" depart="2467" />
    <vehicle id="400" type="typeCar" route="northWest" depart="2468" />
    <vehicle id="401" type="typeCar" route="westNorth" depart="2471" />
    <vehicle id="402" type="typeCar" route="eastWest" depart="2473" />
    <vehicle id="403" type="typeCar" route="eastWest" depart="2479" />
    <vehicle id="404" type="typeCar" route="southWest" depart="2483" />
    <vehicle id="405" type="typeCar" route="southEast" depart="2484" />
    <vehicle id="406" type="typeCar" route="eastSouth" depart="2500" />
    <vehicle id="407" type="typeCar" route="westEast" depart="2503" />