<routes>
<vType id="typeCar" accel="0.8" decel="4.5" sigma="0.5" length="5" minGap="2.5" maxSpeed="25" guiShape="passenger"/>
<vType id="typeBus" accel="0.8" decel="4.5" sigma="0.5" length="17" minGap="3" maxSpeed="25" guiShape="bus"/>

<route id="eastSouth" edges="2:0 0:1 1:5 5:6" />
<route id="eastWest" edges="2:0 0:1 1:3 3:7" />
<route id="westSouth" edges="7:3 3:1 1:5 5:6" />
<route id="westEast" edges="7:3 3:1 1:0 0:2" />
<route id="southEast" edges="6:5 5:1 1:0 0:2" />
<route id="southWest" edges="6:5 5:1 1:3 3:7" />

    <vehicle id="0" type="typeCar" route="eastSouth" depart="14" />
    <vehicle id="1" type="typeCar" route="eastWest" depart="32" />
    <vehicle id="2" type="typeCar" route="westEast" depart="40" />
    <vehicle id="3" type="typeCar" route="westEast" depart="48" />
    <vehicle id="4" type="typeCar" route="westEast" depart="68" />
    <vehicle id="5" type="typeCar" route="westEast" depart="77" />
    <vehicle id="6" type="typeCar" route="eastWest" depart="96" />
    <vehicle id="7" type="typeCar" route="southWest" depart="121" />
    <vehicle id="8" type="typeCar" route="eastWest" depart="152" />
    <vehicle id="9" type="typeCar" route="southEast" depart="160" />
    <vehicle id="10" type="typeCar" route="westEast" depart="174" />
    <vehicle id="11" type="typeCar" route="westEast" depart="181" />
    <vehicle id="12" type="typeCar" route="eastSouth" depart="187" />
    <vehicle id="13" type="typeCar" route="eastWest" depart="199" />
    <vehicle id="14" type="typeCar" route="eastWest" depart="209" />
    <vehicle id="15" type="typeCar" route="westEast" depart="211" />
    <vehicle id="16" type="typeCar" route="westSouth" depart="212" />
    <vehicle id="17" type="typeCar" route="westEast" depart="236" />
    <vehicle id="18" type="typeCar" route="westEast" depart="254" />
    <vehicle id="19" type="typeCar" route="eastSouth" depart="256" />
    <vehicle id="20" type="typeCar" route="southEast" depart="256" />
    <vehicle id="21" type="typeCar" route="westEast" depart="274" />
    <vehicle id="22" type="typeCar" route="eastWest" depart="293" />
    <vehicle id="23" type="typeCar" route="westSouth" depart="297" />
    <vehicle id="24" type="typeCar" route="westEast" depart="299" />
    <vehicle id="25" type="typeCar" route="westSouth" depart="301" />
    <vehicle id="26" type="typeCar" route="eastWest" depart="305" />
    <vehicle id="27" type="typeCar" route="eastSouth" depart="307" />
    <vehicle id="28" type="typeCar" route="westSouth" depart="331" />
    <vehicle id="29" type="typeCar" route="eastWest" depart="334" />
    <vehicle id="30" type="typeCar" route="eastSouth" depart="354" />
    <vehicle id="31" type="typeCar" route="eastWest" depart="359" />
    <vehicle id="32" type="typeCar" route="eastWest" depart="382" />
    <vehicle id="33" type="typeCar" route="westEast" depart="383" />
    <vehicle id="34" type="typeCar" route="westEast" depart="400" />
    <vehicle id="35" type="typeCar" route="westEast" depart="406" />
    <vehicle id="36" type="typeCar" route="westEast" depart="430" />
    <vehicle id="37" type="typeCar" route="westEast" depart="456" />
    <vehicle id="38" type="typeCar" route="southEast" depart="506" />
    <vehicle id="39" type="typeCar" route="eastWest" depart="541" />
    <vehicle id="40" type="typeCar" route="southEast" depart="546" />
    <vehicle id="41" type="typeCar" route="eastWest" depart="592" />
    <vehicle id="42" type="typeCar" route="eastWest" depart="623" />
    <vehicle id="43" type="typeCar" route="eastWest" depart="627" />
    <vehicle id="44" type="typeCar" route="eastSouth" depart="641" />
    <vehicle id="45" type="typeCar" route="southEast" depart="647" />
    <vehicle id="46" type="typeCar" route="westEast" depart="662" />
    <vehicle id="47" type="typeCar" route="southWest" depart="665" />
    <vehicle id="48" type="typeCar" route="westEast" depart="678" />
    <vehicle id="49" type="typeCar" route="southWest" depart="693" />
    <vehicle id="50" type="typeCar" route="eastWest" depart="730" />
    <vehicle id="51" type="typeCar" route="southWest" depart="744" />
    <vehicle id="52" type="typeCar" route="eastWest" depart="764" />
    <vehicle id="53" type="typeCar" route="eastWest" depart="765" />
    <vehicle id="54" type="typeCar" route="southEast" depart="778" />
    <vehicle id="55" type="typeCar" route="eastWest" depart="779" />
    <vehicle id="56" type="typeCar" route="eastSouth" depart="799" />
    <vehicle id="57" type="typeCar" route="eastSouth" depart="844" />
    <vehicle id="58" type="typeCar" route="westEast" depart="854" />
    <vehicle id="59" type="typeCar" route="westEast" depart="870" />
    <vehicle id="60" type="typeCar" route="eastWest" depart="885" />
    <vehicle id="61" type="typeCar" route="southWest" depart="896" />
    <vehicle id="62" type="typeCar" route="eastWest" depart="906" />
    <vehicle id="63" type="typeCar" route="southEast" depart="909" />
    <vehicle id="64" type="typeCar" route="eastWest" depart="914" />
    <vehicle id="65" type="typeCar" route="eastWest" depart="915" />
    <vehicle id="66" type="typeCar" route="eastWest" depart="923" />
    <vehicle id="67" type="typeCar" route="westSouth" depart="935" />
    <vehicle id="68" type="typeCar" route="southEast" depart="939" />
    <vehicle id="69" type="typeCar" route="westEast" depart="943" />
    <vehicle id="70" type="typeCar" route="westEast" depart="949" />
    <vehicle id="71" type="typeCar" route="westEast" depart="957" />
    <vehicle id="72" type="typeCar" route="westSouth" depart="960" />
    <vehicle id="73" type="typeCar" route="southWest" depart="971" />
    <vehicle id="74" type="typeCar" route="eastWest" depart="985" />
    <vehicle id="75" type="typeCar" route="eastWest" depart="999" />
    <vehicle id="76" type="typeCar" route="westSouth" depart="1043" />
    <vehicle id="77" type="typeCar" route="eastWest" depart="1050" />
    <vehicle id="78" type="typeCar" route="westEast" depart="1052" />
    <vehicle id="79" type="typeCar" route="westEast" depart="1071" />
    <vehicle id="80" type="typeCar" route="eastSouth" depart="1091" />
    <vehicle id="81" type="typeCar" route="eastSouth" depart="1094" />
    <vehicle id="82" type="typeCar" route="westEast" depart="1098" />
    <vehicle id="83" type="typeCar" route="southEast" depart="1100" />
    <vehicle id="84" type="typeCar" route="eastWest" depart="1103" />
    <vehicle id="85" type="typeCar" route="eastWest" depart="1109" />
    <vehicle id="86" type="typeCar" route="southEast" depart="1110" />
    <vehicle id="87" type="typeCar" route="southEast" depart="1124" />
    <vehicle id="88" type="typeCar" route="westEast" depart="1127" />
    <vehicle id="89" type="typeCar" route="westSouth" depart="1136" />
    <vehicle id="90" type="typeCar" route="eastWest" depart="1138" />
    <vehicle id="91" type="typeCar" route="westEast" depart="1153" />
    <vehicle id="92" type="typeCar" route="westEast" depart="1165" />
    <vehicle id="93" type="typeCar" route="eastWest" depart="1172" />
    <vehicle id="94" type="typeCar" route="eastSouth" depart="1224" />
    <vehicle id="95" type="typeCar" route="westSouth" depart="1227" />
    <vehicle id="96" type="typeCar" route="eastSouth" depart="1229" />
    <vehicle id="97" type="typeCar" route="westSouth" depart="1234" />
    <vehicle id="98" type="typeCar" route="westEast" depart="1235" />
    <vehicle id="99" type="typeCar" route="southEast" depart="1248" />
    <vehicle id="100" type="typeCar" route="southEast" depart="1265" />
    <vehicle id="101" type="typeCar" route="eastWest" depart="1268" />
    <vehicle id="102" type="typeCar" route="westEast" depart="1270" />
    <vehicle id="103" type="typeCar" route="westEast" depart="1274" />
    <vehicle id="104" type="typeCar" route="southWest" depart="1299" />
    <vehicle id="105" type="typeCar" route="eastSouth" depart="1300" />
    <vehicle id="106" type="typeCar" route="westEast" depart="1334" />
    <vehicle id="107" type="typeCar" route="southWest" depart="1341" />
    <vehicle id="108" type="typeCar" route="westEast" depart="1346" />
    <vehicle id="109" type="typeCar" route="eastWest" depart="1347" />
    <vehicle id="110" type="typeCar" route="eastSouth" depart="1350" />
    <vehicle id="111" type="typeCar" route="southWest" depart="1363" />
    <vehicle id="112" type="typeCar" route="eastWest" depart="1399" />
    <vehicle id="113" type="typeCar" route="westSouth" depart="1401" />
    <vehicle id="114" type="typeCar" route="southEast" depart="1401" />
    <vehicle id="115" type="typeCar" route="eastSouth" depart="1411" />
    <vehicle id="116" type="typeCar" route="westEast" depart="1414" />
    <vehicle id="117" type="typeCar" route="westEast" depart="1418" />
    <vehicle id="118" type="typeCar" route="eastWest" depart="1441" />
    <vehicle id="119" type="typeCar" route="southEast" depart="1442" />
    <vehicle id="120" type="typeCar" route="eastWest" depart="1461" />
    <vehicle id="121" type="typeCar" route="southWest" depart="1479" />
    <vehicle id="122" type="typeCar" route="eastWest" depart="1501" />
    <vehicle id="123" type="typeCar" route="westEast" depart="1514" />
    <vehicle id="124" type="typeCar" route="westSouth" depart="1555" />
    <vehicle id="125" type="typeCar" route="westEast" depart="1592" />
    <vehicle id="126" type="typeCar" route="westEast" depart="1621" />
    <vehicle id="127" type="typeCar" route="eastWest" depart="1624" />
    <vehicle id="128" type="typeCar" route="westSouth" depart="1624" />
    <vehicle id="129" type="typeCar" route="westEast" depart="1626" />
    <vehicle id="130" type="typeCar" route="eastWest" depart="1649" />
    <vehicle id="131" type="typeCar" route="westEast" depart="1655" />
    <vehicle id="132" type="typeCar" route="westSouth" depart="1679" />
    <vehicle id="133" type="typeCar" route="westEast" depart="1680" />
    <vehicle id="134" type="typeCar" route="eastWest" depart="1691" />
    <vehicle id="135" type="typeCar" route="westEast" depart="1691" />
    <vehicle id="136" type="typeCar" route="southEast" depart="1697" />
    <vehicle id="137" type="typeCar" route="eastSouth" depart="1699" />
    <vehicle id="138" type="typeCar" route="westSouth" depart="1700" />
    <vehicle id="139" type="typeCar" route="eastWest" depart="1704" />
    <vehicle id="140" type="typeCar" route="westEast" depart="1788" />
    <vehicle id="141" type="typeCar" route="westEast" depart="1789" />
    <vehicle id="142" type="typeCar" route="eastSouth" depart="1813" />
    <vehicle id="143" type="typeCar" route="westEast" depart="1821" />
    <vehicle id="144" type="typeCar" route="westEast" depart="1824" />
    <vehicle id="145" type="typeCar" route="eastWest" depart="1830" />
    <vehicle id="146" type="typeCar" route="westEast" depart="1836" />
    <vehicle id="147" type="typeCar" route="westEast" depart="1918" />
    <vehicle id="148" type="typeCar" route="eastSouth" depart="1934" />
    <vehicle id="149" type="typeCar" route="eastWest" depart="1935" />
    <vehicle id="150" type="typeCar" route="westSouth" depart="1945" />
    <vehicle id="151" type="typeCar" route="westEast" depart="1953" />
    <vehicle id="152" type="typeCar" route="westEast" depart="1958" />
    <vehicle id="153" type="typeCar" route="eastWest" depart="1987" />
    <vehicle id="154" type="typeCar" route="westEast" depart="1994" />
    <vehicle id="155" type="typeCar" route="eastSouth" depart="2014" />
    <vehicle id="156" type="typeCar" route="westEast" depart="2015" />
    <vehicle id="157" type="typeCar" route="eastWest" depart="2026" />
    <vehicle id="158" type="typeCar" route="eastWest" depart="2038" />
    <vehicle id="159" type="typeCar" route="westEast" depart="2042" />
    <vehicle id="160" type="typeCar" route="westEast" depart="2049" />
    <vehicle id="161" type="typeCar" route="westSouth" depart="2059" />
    <vehicle id="162" type="typeCar" route="eastWest" depart="2070" />
    <vehicle id="163" type="typeCar" route="westEast" depart="2086" />
    <vehicle id="164" type="typeCar" route="westSouth" depart="2092" />
    <vehicle id="165" type="typeCar" route="eastWest" depart="2099" />
    <vehicle id="166" type="typeCar" route="westEast" depart="2122" />
    <vehicle id="167" type="typeCar" route="westSouth" depart="2130" />
    <vehicle id="168" type="typeCar" route="westEast" depart="2131" />
    <vehicle id="169" type="typeCar" route="eastWest" depart="2141" />
    <vehicle id="170" type="typeCar" route="southWest" depart="2142" />
    <vehicle id="171" type="typeCar" route="eastWest" depart="2148" />
    <vehicle id="172" type="typeCar" route="eastWest" depart="2154" />
    <vehicle id="173" type="typeCar" route="westEast" depart="2169" />
    <vehicle id="174" type="typeCar" route="eastWest" depart="2174" />
    <vehicle id="175" type="typeCar" route="westEast" depart="2176" />
    <vehicle id="176" type="typeCar" route="westEast" depart="2178" />
    <vehicle id="177" type="typeCar" route="eastWest" depart="2188" />
    <vehicle id="178" type="typeCar" route="eastWest" depart="2210" />
    <vehicle id="179" type="typeCar" route="eastWest" depart="2222" />
    <vehicle id="180" type="typeCar" route="westEast" depart="2234" />
    <vehicle id="181" type="typeCar" route="eastWest" depart="2238" />
    <vehicle id="182" type="typeCar" route="eastWest" depart="2247" />
    <vehicle id="183" type="typeCar" route="southWest" depart="2288" />
    <vehicle id="184" type="typeCar" route="westEast" depart="2292" />
    <vehicle id="185" type="typeCar" route="westSouth" depart="2328" />
    <vehicle id="186" type="typeCar" route="westEast" depart="2343" />
    <vehicle id="187" type="typeCar" route="westEast" depart="2352" />
    <vehicle id="188" type="typeCar" route="eastWest" depart="2353" />
    <vehicle id="189" type="typeCar" route="eastSouth" depart="2355" />
    <vehicle id="190" type="typeCar" route="westEast" depart="2355" />
    <vehicle id="191" type="typeCar" route="eastSouth" depart="2372" />
    <vehicle id="192" type="typeCar" route="eastWest" depart="2380" />
    <vehicle id="193" type="typeCar" route="westEast" depart="2389" />
    <vehicle id="194" type="typeCar" route="westSouth" depart="2407" />
    <vehicle id="195" type="typeCar" route="westEast" depart="2451" />
    <vehicle id="196" type="typeCar" route="eastSouth" depart="2459" />
    <vehicle id="197" type="typeCar" route="westEast" depart="2460" />
    <vehicle id="198" type="typeCar" route="eastWest" depart="2466" />
    <vehicle id="199" type="typeCar" route="westEast" depart="2472" />
    <vehicle id="200" type="typeCar" route="eastWest" depart="2476" />
    <vehicle id="201" type="typeCar" route="eastWest" depart="2486" />
    <vehicle id="202" type="typeCar" route="eastWest" depart="2491" />
    <vehicle id="203" type="typeCar" route="westEast" depart="2501" />
    <vehicle id="204" type="typeCar" route="eastWest" depart="2509" />
    <vehicle id="205" type="typeCar" route="eastWest" depart="2511" />
    <vehicle id="206" type="typeCar" route="eastWest" depart="2513" />
    <vehicle id="207" type="typeCar" route="westEast" depart="2516" />
    <vehicle id="208" type="typeCar" route="eastWest" depart="2537" />
    <vehicle id="209" type="typeCar" route="southWest" depart="2541" />
    <vehicle id="210" type="typeCar" route="westEast" depart="2556" />
    <vehicle id="211" type="typeCar" route="westEast" depart="2565" />
    <vehicle id="212" type="typeCar" route="eastWest" depart="2567" />
    <vehicle id="213" type="typeCar" route="westEast" depart="2575" />
    <vehicle id="214" type="typeCar" route="westEast" depart="2602" />
    <vehicle id="215" type="typeCar" route="eastWest" depart="2603" />
    <vehicle id="216" type="typeCar" route="eastSouth" depart="2608" />
    <vehicle id="217" type="typeCar" route="westSouth" depart="2610" />
    <vehicle id="218" type="typeCar" route="eastWest" depart="2621" />
    <vehicle id="219" type="typeCar" route="eastWest" depart="2637" />
    <vehicle id="220" type="typeCar" route="southEast" depart="2658" />
    <vehicle id="221" type="typeCar" route="eastWest" depart="2694" />
    <vehicle id="222" type="typeCar" route="eastWest" depart="2742" />
    <vehicle id="223" type="typeCar" route="eastWest" depart="2744" />
    <vehicle id="224" type="typeCar" route="eastSouth" depart="2756" />
    <vehicle id="225" type="typeCar" route="westEast" depart="2758" />
    <vehicle id="226" type="typeCar" route="eastSouth" depart="2783" />
    <vehicle id="227" type="typeCar" route="westEast" depart="2823" />
    <vehicle id="228" type="typeCar" route="southWest" depart="2852" />
    <vehicle id="229" type="typeCar" route="eastWest" depart="2856" />
    <vehicle id="230" type="typeCar" route="eastWest" depart="2867" />
    <vehicle id="231" type="typeCar" route="westSouth" depart="2878" />
    <vehicle id="232" type="typeCar" route="southEast" depart="2890" />
    <vehicle id="233" type="typeCar" route="eastWest" depart="2910" />
    <vehicle id="234" type="typeCar" route="westSouth" depart="2919" />
    <vehicle id="235" type="typeCar" route="southEast" depart="2933" />
    <vehicle id="236" type="typeCar" route="westEast" depart="2954" />
    <vehicle id="237" type="typeCar" route="eastSouth" depart="2986" />
    <vehicle id="238" type="typeCar" route="eastWest" depart="2994" />
    <vehicle id="239" type="typeCar" route="eastSouth" depart="3001" />
    <vehicle id="240" type="typeCar" route="westEast" depart="3011" />
    <vehicle id="241" type="typeCar" route="eastWest" depart="3012" />
    <vehicle id="242" type="typeCar" route="eastWest" depart="3023" />
    <vehicle id="243" type="typeCar" route="westEast" depart="3030" />
    <vehicle id="244" type="typeCar" route="eastWest" depart="3052" />
    <vehicle id="245" type="typeCar" route="eastWest" depart="3069" />
    <vehicle id="246" type="typeCar" route="eastSouth" depart="3091" />
    <vehicle id="247" type="typeCar" route="eastSouth" depart="3103" />
    <vehicle id="248" type="typeCar" route="westEast" depart="3117" />
    <vehicle id="249" type="typeCar" route="westEast" depart="3144" />
    <vehicle id="250" type="typeCar" route="eastSouth" depart="3150" />
    <vehicle id="251" type="typeCar" route="southWest" depart="3151" />
    <vehicle id="252" type="typeCar" route="westEast" depart="3169" />
    <vehicle id="253" type="typeCar" route="eastSouth" depart="3181" />
    <vehicle id="254" type="typeCar" route="westEast" depart="3189" />
    <vehicle id="255" type="typeCar" route="eastWest" depart="3195" />
    <vehicle id="256" type="typeCar" route="eastWest" depart="3203" />
    <vehicle id="257" type="typeCar" route="westEast" depart="3207" />
    <vehicle id="258" type="typeCar" route="westSouth" depart="3211" />
    <vehicle id="259" type="typeCar" route="eastSouth" depart="3231" />
    <vehicle id="260" type="typeCar" route="westEast" depart="3234" />
    <vehicle id="261" type="typeCar" route="westEast" depart="3235" />
    <vehicle id="262" type="typeCar" route="westEast" depart="3254" />
    <vehicle id="263" type="typeCar" route="eastWest" depart="3257" />
    <vehicle id="264" type="typeCar" route="westSouth" depart="3259" />
    <vehicle id="265" type="typeCar" route="eastWest" depart="3263" />
    <vehicle id="266" type="typeCar" route="eastWest" depart="3272" />
    <vehicle id="267" type="typeCar" route="westEast" depart="3303" />
    <vehicle id="268" type="typeCar" route="eastSouth" depart="3352" />
    <vehicle id="269" type="typeCar" route="westEast" depart="3365" />
    <vehicle id="270" type="typeCar" route="eastSouth" depart="3366" />
    <vehicle id="271" type="typeCar" route="westEast" depart="3374" />
    <vehicle id="272" type="typeCar" route="westSouth" depart="3379" />
    <vehicle id="273" type="typeCar" route="westEast" depart="3387" />
    <vehicle id="274" type="typeCar" route="eastWest" depart="3396" />
    <vehicle id="275" type="typeCar" route="southWest" depart="3397" />
    <vehicle id="276" type="typeCar" route="southWest" depart="3402" />
    <vehicle id="277" type="typeCar" route="eastSouth" depart="3412" />
    <vehicle id="278" type="typeCar" route="westSouth" depart="3426" />
    <vehicle id="279" type="typeCar" route="eastWest" depart="3431" />
    <vehicle id="280" type="typeCar" route="westEast" depart="3447" />
    <vehicle id="281" type="typeCar" route="eastWest" depart="3448" />
    <vehicle id="282" type="typeCar" route="westEast" depart="3461" />
    <vehicle id="283" type="typeCar" route="eastWest" depart="3468" />
    <vehicle id="284" type="typeCar" route="westSouth" depart="3552" />
    <vehicle id="285" type="typeCar" route="westEast" depart="3575" />
    <vehicle id="286" type="typeCar" route="westEast" depart="3585" />
    <vehicle id="287" type="typeCar" route="eastSouth" depart="3588" />
    <vehicle id="288" type="typeCar" route="westEast" depart="3607" />
    <vehicle id="289" type="typeCar" route="eastSouth" depart="3609" />
    <vehicle id="290" type="typeCar" route="southEast" depart="3616" />
    <vehicle id="291" type="typeCar" route="eastWest" depart="3626" />
    <vehicle id="292" type="typeCar" route="eastWest" depart="3629" />
    <vehicle id="293" type="typeCar" route="eastWest" depart="3646" />
    <vehicle id="294" type="typeCar" route="eastWest" depart="3688" />
    <vehicle id="295" type="typeCar" route="westEast" depart="3702" />
    <vehicle id="296" type="typeCar" route="westEast" depart="3705" />
    <vehicle id="297" type="typeCar" route="southEast" depart="3705" />
    <vehicle id="298" type="typeCar" route="eastSouth" depart="3727" />
    <vehicle id="299" type="typeCar" route="eastWest" depart="3738" />
    <vehicle id="300" type="typeCar" route="eastSouth" depart="3761" />
    <vehicle id="301" type="typeCar" route="eastSouth" depart="3764" />
    <vehicle id="302" type="typeCar" route="westEast" depart="3774" />
    <vehicle id="303" type="typeCar" route="eastWest" depart="3812" />
    <vehicle id="304" type="typeCar" route="eastWest" depart="3822" />
    <vehicle id="305" type="typeCar" route="eastSouth" depart="3828" />
    <vehicle id="306" type="typeCar" route="westSouth" depart="3828" />
    <vehicle id="307" type="typeCar" route="southWest" depart="3842" />
    <vehicle id="308" type="typeCar" route="southEast" depart="3870" />
    <vehicle id="309" type="typeCar" route="westEast" depart="3875" />
    <vehicle id="310" type="typeCar" route="southWest" depart="3881" />
    <vehicle id="311" type="typeCar" route="southEast" depart="3883" />
    <vehicle id="312" type="typeCar" route="westSouth" depart="3893" />
    <vehicle id="313" type="typeCar" route="westEast" depart="3916" />
    <vehicle id="314" type="typeCar" route="eastWest" depart="3928" />
    <vehicle id="315" type="typeCar" route="westEast" depart="3928" />
    <vehicle id="316" type="typeCar" route="westEast" depart="3948" />
    <vehicle id="317" type="typeCar" route="eastWest" depart="3984" />
    <vehicle id="318" type="typeCar" route="westEast" depart="4014" />
    <vehicle id="319" type="typeCar" route="eastWest" depart="4019" />
    <vehicle id="320" type="typeCar" route="southWest" depart="4030" />
    <vehicle id="321" type="typeCar" route="westSouth" depart="4034" />
    <vehicle id="322" type="typeCar" route="westEast" depart="4055" />
    <vehicle id="323" type="typeCar" route="westSouth" depart="4086" />
    <vehicle id="324" type="typeCar" route="eastWest" depart="4107" />
    <vehicle id="325" type="typeCar" route="westEast" depart="4117" />
    <vehicle id="326" type="typeCar" route="southWest" depart="4131" />
    <vehicle id="327" type="typeCar" route="eastWest" depart="4136" />
    <vehicle id="328" type="typeCar" route="westEast" depart="4143" />
    <vehicle id="329" type="typeCar" route="westEast" depart="4156" />
    <vehicle id="330" type="typeCar" route="eastSouth" depart="4163" />
    <vehicle id="331" type="typeCar" route="westEast" depart="4169" />
    <vehicle id="332" type="typeCar" route="westEast" depart="4175" />
    <vehicle id="333" type="typeCar" route="westEast" depart="4177" />
    <vehicle id="334" type="typeCar" route="eastWest" depart="4188" />
    <vehicle id="335" type="typeCar" route="westEast" depart="4206" />
    <vehicle id="336" type="typeCar" route="westSouth" depart="4230" />
    <vehicle id="337" type="typeCar" route="eastWest" depart="4242" />
    <vehicle id="338" type="typeCar" route="westEast" depart="4249" />
    <vehicle id="339" type="typeCar" route="eastSouth" depart="4259" />
    <vehicle id="340" type="typeCar" route="eastSouth" depart="4263" />
    <vehicle id="341" type="typeCar" route="westSouth" depart="4281" />
    <vehicle id="342" type="typeCar" route="westEast" depart="4289" />
    <vehicle id="343" type="typeCar" route="eastSouth" depart="4305" />
    <vehicle id="344" type="typeCar" route="southEast" depart="4315" />
    <vehicle id="345" type="typeCar" route="eastWest" depart="4351" />
    <vehicle id="346" type="typeCar" route="westEast" depart="4402" />
    <vehicle id="347" type="typeCar" route="westEast" depart="4424" />
    <vehicle id="348" type="typeCar" route="eastWest" depart="4435" />
    <vehicle id="349" type="typeCar" route="eastWest" depart="4445" />
    <vehicle id="350" type="typeCar" route="westEast" depart="4479" />
    <vehicle id="351" type="typeCar" route="eastSouth" depart="4488" />
    <vehicle id="352" type="typeCar" route="eastWest" depart="4490" />
    <vehicle id="353" type="typeCar" route="westEast" depart="4493" />
    <vehicle id="354" type="typeCar" route="southWest" depart="4509" />
    <vehicle id="355" type="typeCar" route="eastWest" depart="4512" />
    <vehicle id="356" type="typeCar" route="westEast" depart="4525" />
    <vehicle id="357" type="typeCar" route="westSouth" depart="4530" />
    <vehicle id="358" type="typeCar" route="westEast" depart="4533" />
    <vehicle id="359" type="typeCar" route="southEast" depart="4558" />
    <vehicle id="360" type="typeCar" route="westEast" depart="4560" />
    <vehicle id="361" type="typeCar" route="southWest" depart="4560" />
    <vehicle id="362" type="typeCar" route="westEast" depart="4569" />
    <vehicle id="363" type="typeCar" route="eastWest" depart="4587" />
    <vehicle id="364" type="typeCar" route="westEast" depart="4593" />
    <vehicle id="365" type="typeCar" route="westSouth" depart="4612" />
    <vehicle id="366" type="typeCar" route="westSouth" depart="4639" />
    <vehicle id="367" type="typeCar" route="eastWest" depart="4641" />
    <vehicle id="368" type="typeCar" route="eastWest" depart="4647" />
    <vehicle id="369" type="typeCar" route="eastWest" depart="4664" />
    <vehicle id="370" type="typeCar" route="southEast" depart="4666" />
    <vehicle id="371" type="typeCar" route="eastWest" depart="4678" />
    <vehicle id="372" type="typeCar" route="eastWest" depart="4691" />
    <vehicle id="373" type="typeCar" route="westEast" depart="4693" />
    <vehicle id="374" type="typeCar" route="eastSouth" depart="4696" />
    <vehicle id="375" type="typeCar" route="eastWest" depart="4699" />
    <vehicle id="376" type="typeCar" route="eastWest" depart="4712" />
    <vehicle id="377" type="typeCar" route="eastWest" depart="4715" />
    <vehicle id="378" type="typeCar" route="eastSouth" depart="4734" />
    <vehicle id="379" type="typeCar" route="eastWest" depart="4734" />
    <vehicle id="380" type="typeCar" route="westEast" depart="4735" />
    <vehicle id="381" type="typeCar" route="westSouth" depart="4737" />
    <vehicle id="382" type="typeCar" route="eastSouth" depart="4738" />
    <vehicle id="383" type="typeCar" route="eastWest" depart="4742" />
    <vehicle id="384" type="typeCar" route="westEast" depart="4743" />
    <vehicle id="385" type="typeCar" route="southWest" depart="4743" />
    <vehicle id="386" type="typeCar" route="eastSouth" depart="4747" />
    <vehicle id="387" type="typeCar" route="westEast" depart="4752" />
    <vehicle id="388" type="typeCar" route="southWest" depart="4752" />
    <vehicle id="389" type="typeCar" route="eastWest" depart="4763" />
    <vehicle id="390" type="typeCar" route="westSouth" depart="4766" />
    <vehicle id="391" type="typeCar" route="westEast" depart="4766" />
    <vehicle id="392" type="typeCar" route="westEast" depart="4794" />
    <vehicle id="393" type="typeCar" route="eastWest" depart="4810" />
    <vehicle id="394" type="typeCar" route="westEast" depart="4814" />
    <vehicle id="395" type="typeCar" route="southWest" depart="4823" />
    <vehicle id="396" type="typeCar" route="eastWest" depart="4824" />
    <vehicle id="397" type="typeCar" route="eastWest" depart="4835" />
    <vehicle id="398" type="typeCar" route="westEast" depart="4839" />
    <vehicle id="399" type="typeCar" route="westSouth" depart="4840" />
    <vehicle id="400" type="typeCar" route="eastWest" depart="4852" />
    <vehicle id="401" type="typeCar" route="westEast" depart="4883" />
    <vehicle id="402" type="typeCar" route="westSouth" depart="4919" />
    <vehicle id="403" type="typeCar" route="eastWest" depart="4964" />
    <vehicle id="404" type="typeCar" route="southEast" depart="4965" />
    <vehicle id="405" type="typeCar" route="eastSouth" depart="4972" />
    <vehicle id="406" type="typeCar" route="westEast" depart="4985" />
    <vehicle id="407" type="typeCar" route="eastWest" depart="4997" />
    <vehicle id="408" type="typeCar" route="southWest" depart="5012" />
    <vehicle id="409" type="typeCar" route="southWest" depart="5057" />
    <vehicle id="410" type="typeCar" route="southWest" depart="5058" />
    <vehicle id="411" type="typeCar" route="eastSouth" depart="5089" />
    <vehicle id="412" type="typeCar" route="westSouth" depart="5097" />
    <vehicle id="413" type="typeCar" route="eastWest" depart="5098" />
    <vehicle id="414" type="typeCar" route="eastWest" depart="5113" />