<?xml version="1.0" encoding="UTF-8"?>

<!-- generated on Tue Aug 18 16:01:59 2015 by SUMO netconvert Version 0.22.0
<?xml version="1.0" encoding="UTF-8"?>

<configuration xmlns:xsi="http://www.w3.org/2001/XMLSchema-instance" xsi:noNamespaceSchemaLocation="http://sumo.dlr.de/xsd/netconvertConfiguration.xsd">

    <input>
        <sumo-net-file value="simpleT.net.xml"/>
        <node-files value="simpleT.nod.xml"/>
    </input>

    <output>
        <output-file value="yourpatched.net.xml"/>
    </output>

    <processing>
        <no-turnarounds value="true"/>
        <offset.disable-normalization value="true"/>
    </processing>

</configuration>
-->

<net version="0.13" xmlns:xsi="http://www.w3.org/2001/XMLSchema-instance" xsi:noNamespaceSchemaLocation="http://sumo.dlr.de/xsd/net_file.xsd">

    <location netOffset="351.00,307.00" convBoundary="-351.00,-322.00,69.00,-112.00" origBoundary="-351.00,-307.00,69.00,-112.00" projParameter="!"/>

    <edge id=":0_0" function="internal">
        <lane id=":0_0_0" index="0" speed="13.89" length="0.10" shape="34.00,-107.05 34.00,-107.05"/>
        <lane id=":0_0_1" index="1" speed="13.89" length="0.10" shape="34.00,-110.35 34.00,-110.35"/>
    </edge>
    <edge id=":0_2" function="internal">
        <lane id=":0_2_0" index="0" speed="13.89" length="0.10" shape="34.00,-116.95 34.00,-116.95"/>
        <lane id=":0_2_1" index="1" speed="13.89" length="0.10" shape="34.00,-113.65 34.00,-113.65"/>
    </edge>
    <edge id=":1_0" function="internal">
        <lane id=":1_0_0" index="0" speed="13.89" length="9.50" shape="-136.25,-107.05 -145.75,-107.05"/>
        <lane id=":1_0_1" index="1" speed="13.89" length="9.50" shape="-136.25,-110.35 -145.75,-110.35"/>
    </edge>
    <edge id=":1_2" function="internal">
        <lane id=":1_2_0" index="0" speed="13.89" length="6.51" shape="-136.25,-110.35 -139.05,-110.96 -141.05,-112.77 -141.40,-113.65"/>
    </edge>
    <edge id=":1_10" function="internal">
        <lane id=":1_10_0" index="0" speed="13.89" length="6.58" shape="-141.40,-113.65 -142.25,-115.81 -142.65,-120.05"/>
    </edge>
    <edge id=":1_3" function="internal">
        <lane id=":1_3_0" index="0" speed="13.89" length="6.42" shape="-139.35,-120.05 -139.16,-118.69 -138.57,-117.72 -137.61,-117.14 -136.25,-116.95"/>
        <lane id=":1_3_1" index="1" speed="13.89" length="6.42" shape="-139.35,-120.05 -139.16,-117.25 -138.57,-115.25 -137.61,-114.05 -136.25,-113.65"/>
    </edge>
    <edge id=":1_5" function="internal">
        <lane id=":1_5_0" index="0" speed="13.89" length="3.11" shape="-139.35,-120.05 -139.57,-116.95"/>
        <lane id=":1_5_1" index="1" speed="13.89" length="3.11" shape="-139.35,-120.05 -139.64,-116.95"/>
    </edge>
    <edge id=":1_11" function="internal">
        <lane id=":1_11_0" index="0" speed="13.89" length="12.90" shape="-139.57,-116.95 -139.75,-114.36 -140.95,-110.30 -142.95,-107.86 -145.75,-107.05"/>
    </edge>
    <edge id=":1_12" function="internal">
        <lane id=":1_12_0" index="0" speed="13.89" length="9.98" shape="-139.64,-116.95 -139.75,-115.81 -140.95,-112.78 -142.95,-110.96 -145.75,-110.35"/>
    </edge>
    <edge id=":1_7" function="internal">
        <lane id=":1_7_0" index="0" speed="13.89" length="5.00" shape="-145.75,-116.95 -144.39,-117.14 -143.42,-117.73 -142.84,-118.69 -142.65,-120.05"/>
    </edge>
    <edge id=":1_8" function="internal">
        <lane id=":1_8_0" index="0" speed="13.89" length="9.50" shape="-145.75,-116.95 -136.25,-116.95"/>
        <lane id=":1_8_1" index="1" speed="13.89" length="9.50" shape="-145.75,-113.65 -136.25,-113.65"/>
    </edge>
    <edge id=":3_0" function="internal">
        <lane id=":3_0_0" index="0" speed="13.89" length="0.10" shape="-316.00,-107.05 -316.00,-107.05"/>
        <lane id=":3_0_1" index="1" speed="13.89" length="0.10" shape="-316.00,-110.35 -316.00,-110.35"/>
    </edge>
    <edge id=":3_2" function="internal">
        <lane id=":3_2_0" index="0" speed="13.89" length="0.10" shape="-316.00,-116.95 -316.00,-116.95"/>
        <lane id=":3_2_1" index="1" speed="13.89" length="0.10" shape="-316.00,-113.65 -316.00,-113.65"/>
    </edge>
    <edge id=":5_0" function="internal">
        <lane id=":5_0_0" index="0" speed="13.89" length="0.10" shape="-142.65,-279.60 -142.65,-279.60"/>
    </edge>
    <edge id=":5_1" function="internal">
        <lane id=":5_1_0" index="0" speed="13.89" length="0.10" shape="-139.35,-279.60 -139.35,-279.60"/>
    </edge>

    <edge id="0:1" from="0" to="1" priority="3" type="uMajor">
        <lane id="0:1_0" index="0" speed="13.89" length="170.25" shape="34.00,-107.05 -136.25,-107.05"/>
        <lane id="0:1_1" index="1" speed="13.89" length="170.25" shape="34.00,-110.35 -136.25,-110.35"/>
    </edge>
    <edge id="0:2" from="0" to="2" priority="3" type="uMajor">
        <lane id="0:2_0" index="0" speed="13.89" length="35.00" shape="34.00,-116.95 69.00,-116.95"/>
        <lane id="0:2_1" index="1" speed="13.89" length="35.00" shape="34.00,-113.65 69.00,-113.65"/>
    </edge>
    <edge id="1:0" from="1" to="0" priority="3" type="uMajor">
        <lane id="1:0_0" index="0" speed="13.89" length="170.25" shape="-136.25,-116.95 34.00,-116.95"/>
        <lane id="1:0_1" index="1" speed="13.89" length="170.25" shape="-136.25,-113.65 34.00,-113.65"/>
    </edge>
    <edge id="1:3" from="1" to="3" priority="3" type="uMajor">
        <lane id="1:3_0" index="0" speed="13.89" length="170.25" shape="-145.75,-107.05 -316.00,-107.05"/>
        <lane id="1:3_1" index="1" speed="13.89" length="170.25" shape="-145.75,-110.35 -316.00,-110.35"/>
    </edge>
    <edge id="1:5" from="1" to="5" priority="2" type="uMinor">
        <lane id="1:5_0" index="0" speed="13.89" length="159.55" shape="-142.65,-120.05 -142.65,-279.60"/>
    </edge>
    <edge id="2:0" from="2" to="0" priority="3" type="uMajor">
        <lane id="2:0_0" index="0" speed="13.89" length="35.00" shape="69.00,-107.05 34.00,-107.05"/>
        <lane id="2:0_1" index="1" speed="13.89" length="35.00" shape="69.00,-110.35 34.00,-110.35"/>
    </edge>
    <edge id="3:1" from="3" to="1" priority="3" type="uMajor">
        <lane id="3:1_0" index="0" speed="13.89" length="170.25" shape="-316.00,-116.95 -145.75,-116.95"/>
        <lane id="3:1_1" index="1" speed="13.89" length="170.25" shape="-316.00,-113.65 -145.75,-113.65"/>
    </edge>
    <edge id="3:7" from="3" to="7" priority="3" type="uMajor">
        <lane id="3:7_0" index="0" speed="13.89" length="35.00" shape="-316.00,-107.05 -351.00,-107.05"/>
        <lane id="3:7_1" index="1" speed="13.89" length="35.00" shape="-316.00,-110.35 -351.00,-110.35"/>
    </edge>
    <edge id="5:1" from="5" to="1" priority="2" type="uMinor">
        <lane id="5:1_0" index="0" speed="13.89" length="159.55" shape="-139.35,-279.60 -139.35,-120.05"/>
    </edge>
    <edge id="5:6" from="5" to="6" priority="2" type="uMinor">
        <lane id="5:6_0" index="0" speed="13.89" length="42.40" shape="-142.65,-279.60 -142.65,-322.00"/>
    </edge>
    <edge id="6:5" from="6" to="5" priority="2" type="uMinor">
        <lane id="6:5_0" index="0" speed="13.89" length="42.40" shape="-139.35,-322.00 -139.35,-279.60"/>
    </edge>
    <edge id="7:3" from="7" to="3" priority="3" type="uMajor">
        <lane id="7:3_0" index="0" speed="13.89" length="35.00" shape="-351.00,-116.95 -316.00,-116.95"/>
        <lane id="7:3_1" index="1" speed="13.89" length="35.00" shape="-351.00,-113.65 -316.00,-113.65"/>
    </edge>

    <tlLogic id="1" type="static" programID="0" offset="0">
        <phase duration="31" state="GGgrrrrGGG"/>
        <phase duration="4" state="yygrrrryyy"/>
        <phase duration="6" state="rrGrrrrrrr"/>
        <phase duration="4" state="rryrrrrrrr"/>
        <phase duration="31" state="rrrGGGGGrr"/>
        <phase duration="4" state="rrryyyyyrr"/>
    </tlLogic>

    <junction id="0" type="priority" x="34.00" y="-112.00" incLanes="2:0_0 2:0_1 1:0_0 1:0_1" intLanes=":0_0_0 :0_0_1 :0_2_0 :0_2_1" shape="34.00,-105.45 34.00,-118.55 34.00,-105.45">
        <request index="0" response="0000" foes="0000" cont="0"/>
        <request index="1" response="0000" foes="0000" cont="0"/>
        <request index="2" response="0000" foes="0000" cont="0"/>
        <request index="3" response="0000" foes="0000" cont="0"/>
    </junction>
    <junction id="1" type="traffic_light" x="-141.00" y="-112.00" incLanes="0:1_0 0:1_1 5:1_0 3:1_0 3:1_1" intLanes=":1_0_0 :1_0_1 :1_10_0 :1_3_0 :1_3_1 :1_11_0 :1_12_0 :1_7_0 :1_8_0 :1_8_1" shape="-136.25,-105.45 -136.25,-118.55 -137.75,-120.05 -144.25,-120.05 -145.75,-118.55 -145.75,-105.45">
        <request index="0" response="0000000000" foes="0001100000" cont="0"/>
        <request index="1" response="0000000000" foes="0001100000" cont="0"/>
        <request index="2" response="1110000000" foes="1111100000" cont="1"/>
        <request index="3" response="1100000000" foes="1100000000" cont="0"/>
        <request index="4" response="1100000000" foes="1100000000" cont="0"/>
        <request index="5" response="1100000111" foes="1100000111" cont="1"/>
        <request index="6" response="1100000111" foes="1100000111" cont="1"/>
        <request index="7" response="0000000000" foes="0000000100" cont="0"/>
        <request index="8" response="0000000000" foes="0001111100" cont="0"/>
        <request index="9" response="0000000000" foes="0001111100" cont="0"/>
    </junction>
    <junction id="2" type="dead_end" x="69.00" y="-112.00" incLanes="0:2_0 0:2_1" intLanes="" shape="69.00,-111.95 69.00,-105.45 69.00,-118.55 69.00,-112.05"/>
    <junction id="3" type="priority" x="-316.00" y="-112.00" incLanes="1:3_0 1:3_1 7:3_0 7:3_1" intLanes=":3_0_0 :3_0_1 :3_2_0 :3_2_1" shape="-316.00,-105.45 -316.00,-118.55 -316.00,-105.45">
        <request index="0" response="0000" foes="0000" cont="0"/>
        <request index="1" response="0000" foes="0000" cont="0"/>
        <request index="2" response="0000" foes="0000" cont="0"/>
        <request index="3" response="0000" foes="0000" cont="0"/>
    </junction>
    <junction id="5" type="priority" x="-141.00" y="-279.60" incLanes="1:5_0 6:5_0" intLanes=":5_0_0 :5_1_0" shape="-144.25,-279.60 -137.75,-279.60 -144.25,-279.60">
        <request index="0" response="00" foes="00" cont="0"/>
        <request index="1" response="00" foes="00" cont="0"/>
    </junction>
    <junction id="6" type="dead_end" x="-141.00" y="-322.00" incLanes="5:6_0" intLanes="" shape="-140.95,-322.00 -137.75,-322.00 -144.25,-322.00 -141.05,-322.00"/>
    <junction id="7" type="dead_end" x="-351.00" y="-112.00" incLanes="3:7_0 3:7_1" intLanes="" shape="-351.00,-112.05 -351.00,-118.55 -351.00,-105.45 -351.00,-111.95"/>

    <junction id=":1_10_0" type="internal" x="-141.40" y="-113.65" incLanes=":1_2_0 3:1_0 3:1_1" intLanes=":1_5_0 :1_5_1 :1_7_0 :1_8_0 :1_8_1"/>
    <junction id=":1_11_0" type="internal" x="-139.57" y="-116.95" incLanes=":1_5_0 0:1_0 0:1_1 3:1_0 3:1_1" intLanes=":1_0_0 :1_0_1 :1_2_0 :1_8_0 :1_8_1"/>
    <junction id=":1_12_0" type="internal" x="-139.64" y="-116.95" incLanes=":1_5_1 0:1_0 0:1_1 3:1_0 3:1_1" intLanes=":1_0_0 :1_0_1 :1_2_0 :1_8_0 :1_8_1"/>

    <connection from="0:1" to="1:3" fromLane="0" toLane="0" via=":1_0_0" tl="1" linkIndex="0" dir="s" state="o"/>
    <connection from="0:1" to="1:3" fromLane="1" toLane="1" via=":1_0_1" tl="1" linkIndex="1" dir="s" state="o"/>
    <connection from="0:1" to="1:5" fromLane="1" toLane="0" via=":1_2_0" tl="1" linkIndex="2" dir="l" state="o"/>
    <connection from="1:0" to="0:2" fromLane="0" toLane="0" via=":0_2_0" dir="s" state="M"/>
    <connection from="1:0" to="0:2" fromLane="1" toLane="1" via=":0_2_1" dir="s" state="M"/>
    <connection from="1:3" to="3:7" fromLane="0" toLane="0" via=":3_0_0" dir="s" state="M"/>
    <connection from="1:3" to="3:7" fromLane="1" toLane="1" via=":3_0_1" dir="s" state="M"/>
    <connection from="1:5" to="5:6" fromLane="0" toLane="0" via=":5_0_0" dir="s" state="M"/>
    <connection from="2:0" to="0:1" fromLane="0" toLane="0" via=":0_0_0" dir="s" state="M"/>
    <connection from="2:0" to="0:1" fromLane="1" toLane="1" via=":0_0_1" dir="s" state="M"/>
    <connection from="3:1" to="1:5" fromLane="0" toLane="0" via=":1_7_0" tl="1" linkIndex="7" dir="r" state="o"/>
    <connection from="3:1" to="1:0" fromLane="0" toLane="0" via=":1_8_0" tl="1" linkIndex="8" dir="s" state="o"/>
    <connection from="3:1" to="1:0" fromLane="1" toLane="1" via=":1_8_1" tl="1" linkIndex="9" dir="s" state="o"/>
    <connection from="5:1" to="1:0" fromLane="0" toLane="0" via=":1_3_0" tl="1" linkIndex="3" dir="r" state="o"/>
    <connection from="5:1" to="1:0" fromLane="0" toLane="1" via=":1_3_1" tl="1" linkIndex="4" dir="r" state="o"/>
    <connection from="5:1" to="1:3" fromLane="0" toLane="0" via=":1_5_0" tl="1" linkIndex="5" dir="l" state="o"/>
    <connection from="5:1" to="1:3" fromLane="0" toLane="1" via=":1_5_1" tl="1" linkIndex="6" dir="l" state="o"/>
    <connection from="6:5" to="5:1" fromLane="0" toLane="0" via=":5_1_0" dir="s" state="M"/>
    <connection from="7:3" to="3:1" fromLane="0" toLane="0" via=":3_2_0" dir="s" state="M"/>
    <connection from="7:3" to="3:1" fromLane="1" toLane="1" via=":3_2_1" dir="s" state="M"/>

    <connection from=":0_0" to="0:1" fromLane="0" toLane="0" dir="s" state="M"/>
    <connection from=":0_0" to="0:1" fromLane="1" toLane="1" dir="s" state="M"/>
    <connection from=":0_2" to="0:2" fromLane="0" toLane="0" dir="s" state="M"/>
    <connection from=":0_2" to="0:2" fromLane="1" toLane="1" dir="s" state="M"/>
    <connection from=":1_0" to="1:3" fromLane="0" toLane="0" dir="s" state="M"/>
    <connection from=":1_0" to="1:3" fromLane="1" toLane="1" dir="s" state="M"/>
    <connection from=":1_2" to="1:5" fromLane="0" toLane="0" via=":1_10_0" dir="s" state="m"/>
    <connection from=":1_10" to="1:5" fromLane="0" toLane="0" dir="s" state="M"/>
    <connection from=":1_3" to="1:0" fromLane="0" toLane="0" dir="s" state="M"/>
    <connection from=":1_3" to="1:0" fromLane="1" toLane="1" dir="s" state="M"/>
    <connection from=":1_5" to="1:3" fromLane="0" toLane="0" via=":1_11_0" dir="s" state="m"/>
    <connection from=":1_11" to="1:3" fromLane="0" toLane="0" dir="s" state="M"/>
    <connection from=":1_5" to="1:3" fromLane="1" toLane="1" via=":1_12_0" dir="s" state="m"/>
    <connection from=":1_12" to="1:3" fromLane="0" toLane="1" dir="s" state="M"/>
    <connection from=":1_7" to="1:5" fromLane="0" toLane="0" dir="s" state="M"/>
    <connection from=":1_8" to="1:0" fromLane="0" toLane="0" dir="s" state="M"/>
    <connection from=":1_8" to="1:0" fromLane="1" toLane="1" dir="s" state="M"/>
    <connection from=":3_0" to="3:7" fromLane="0" toLane="0" dir="s" state="M"/>
    <connection from=":3_0" to="3:7" fromLane="1" toLane="1" dir="s" state="M"/>
    <connection from=":3_2" to="3:1" fromLane="0" toLane="0" dir="s" state="M"/>
    <connection from=":3_2" to="3:1" fromLane="1" toLane="1" dir="s" state="M"/>
    <connection from=":5_0" to="5:6" fromLane="0" toLane="0" dir="s" state="M"/>
    <connection from=":5_1" to="5:1" fromLane="0" toLane="0" dir="s" state="M"/>

</net>
